47
Coordinates from ORCA-job orca_MEP E -1040.281512848025
  C       2.199639     -2.657260     -0.154542
  C       2.038993     -1.382076      0.697024
  C       1.768874     -1.749188      2.187265
  C       0.264176     -1.851516      2.233461
  C      -0.300909     -1.199175      1.136714
  C       0.782625     -0.575129      0.349816
  C       0.787851      0.584855     -0.378928
  C      -0.202380      1.695557     -0.354812
  C      -1.320719      1.931102      0.453316
  C      -2.025949      3.130922      0.323420
  C      -1.621492      4.109271     -0.591401
  C      -0.479773      3.910463     -1.370004
  C       0.228897      2.716675     -1.239746
  C       1.489623      2.299304     -1.850969
  C       2.283077      2.943315     -2.799039
  C       3.463641      2.332100     -3.225943
  C       3.830087      1.083421     -2.713912
  C       3.031834      0.429752     -1.769936
  C       1.856101      1.038005     -1.311897
  C      -1.700328     -1.350582      0.861216
  C      -2.321318     -0.927835     -0.344396
  C      -3.669133     -1.125585     -0.555965
  C      -4.469332     -1.753515      0.427588
  C      -3.893702     -2.205432      1.593395
  C      -2.502501     -2.040630      1.834942
  C      -1.892185     -2.587534      2.997589
  C      -0.527764     -2.522914      3.184224
  H       3.106378     -3.199776      0.134810
  H       2.265679     -2.428593     -1.221829
  H       1.344481     -3.325298     -0.011711
  H       2.935373     -0.764275      0.609718
  H       2.134066     -0.950137      2.846668
  H       2.265377     -2.676738      2.493513
  H      -1.644173      1.203884      1.185888
  H      -2.898039      3.303988      0.947639
  H      -2.184682      5.034023     -0.680377
  H      -0.138246      4.684303     -2.052340
  H       1.986714      3.907322     -3.203925
  H       4.094011      2.823052     -3.961895
  H       4.744964      0.607606     -3.055796
  H       3.341073     -0.545455     -1.418090
  H      -1.717784     -0.450685     -1.106847
  H      -4.120715     -0.798377     -1.488151
  H      -5.532251     -1.892376      0.252396
  H      -4.493899     -2.715046      2.343114
  H      -2.521091     -3.100815      3.720739
  H      -0.065167     -2.992977      4.048000
47
Coordinates from ORCA-job orca_MEP E -1040.270344423048
  C       2.057781     -2.599809     -0.683715
  C       1.950490     -1.497334      0.388509
  C       1.812102     -2.075589      1.813813
  C       0.333033     -2.027987      2.063794
  C      -0.339959     -1.313455      1.065895
  C       0.678812     -0.658890      0.195234
  C       0.711809      0.526337     -0.506799
  C      -0.303500      1.619492     -0.639342
  C      -1.606569      1.788028     -0.154806
  C      -2.350330      2.916931     -0.518181
  C      -1.797795      3.923275     -1.314687
  C      -0.466494      3.826712     -1.720812
  C       0.264460      2.691329     -1.377036
  C       1.654127      2.374228     -1.673670
  C       2.628886      3.177963     -2.262904
  C       3.910484      2.662789     -2.456860
  C       4.175937      1.336637     -2.109544
  C       3.196779      0.531103     -1.518046
  C       1.925817      1.056176     -1.224770
  C      -1.777430     -1.391736      1.036681
  C      -2.577508     -1.049584     -0.086121
  C      -3.956044     -1.105756     -0.027631
  C      -4.612443     -1.518526      1.154939
  C      -3.868218     -1.946122      2.230689
  C      -2.448530     -1.938931      2.188309
  C      -1.698195     -2.520763      3.245799
  C      -0.329863     -2.618124      3.156612
  H       2.988702     -3.167410     -0.571286
  H       2.034579     -2.175233     -1.692222
  H       1.219166     -3.299774     -0.601288
  H       2.832740     -0.862700      0.352323
  H       2.362036     -1.461810      2.540226
  H       2.204870     -3.096670      1.896946
  H      -2.065496      1.059161      0.492590
  H      -3.378941      3.001338     -0.177784
  H      -2.395685      4.782952     -1.604689
  H      -0.007369      4.619779     -2.306226
  H       2.395396      4.199437     -2.551822
  H       4.692090      3.283076     -2.886590
  H       5.160526      0.915735     -2.293992
  H       3.458679     -0.496362     -1.316916
  H      -2.087342     -0.732336     -0.999760
  H      -4.543219     -0.824410     -0.896897
  H      -5.697629     -1.524433      1.203055
  H      -4.355267     -2.318044      3.129185
  H      -2.230336     -2.937651      4.097417
  H       0.244863     -3.133036      3.922380
47
Coordinates from ORCA-job orca_MEP E -1040.260232602250
  C       1.978995     -2.620379     -0.808570
  C       1.893356     -1.509160      0.255093
  C       1.826200     -2.069841      1.687600
  C       0.364535     -2.016527      2.010226
  C      -0.368999     -1.334398      1.030812
  C       0.604021     -0.687093      0.090318
  C       0.633281      0.490929     -0.632323
  C      -0.366942      1.600624     -0.816549
  C      -1.750745      1.705977     -0.640726
  C      -2.430596      2.869993     -1.018068
  C      -1.747391      3.979869     -1.516785
  C      -0.359774      3.925946     -1.642547
  C       0.306984      2.747951     -1.313055
  C       1.714858      2.431870     -1.493119
  C       2.756545      3.268260     -1.888759
  C       4.022756      2.723274     -2.100907
  C       4.202904      1.344859     -1.976157
  C       3.157491      0.510587     -1.563421
  C       1.902812      1.051605     -1.231805
  C      -1.806564     -1.419085      1.109931
  C      -2.690414     -1.166565      0.028677
  C      -4.062090     -1.200769      0.192961
  C      -4.630231     -1.525396      1.445560
  C      -3.807321     -1.906277      2.480376
  C      -2.395130     -1.910612      2.331521
  C      -1.575994     -2.465146      3.351181
  C      -0.220577     -2.575690      3.162381
  H       2.924014     -3.169626     -0.724810
  H       1.910331     -2.206866     -1.819776
  H       1.157519     -3.335283     -0.689171
  H       2.765014     -0.865978      0.177370
  H       2.411158     -1.450893      2.381707
  H       2.220789     -3.090966      1.763004
  H      -2.331193      0.894813     -0.240658
  H      -3.513541      2.897090     -0.933008
  H      -2.290520      4.872884     -1.813453
  H       0.193394      4.779391     -2.025586
  H       2.581949      4.331806     -2.028064
  H       4.853557      3.361063     -2.388481
  H       5.169613      0.903379     -2.201796
  H       3.349906     -0.551580     -1.546716
  H      -2.268586     -0.955869     -0.947310
  H      -4.711181     -0.976134     -0.648256
  H      -5.708316     -1.514802      1.577323
  H      -4.225601     -2.235786      3.428789
  H      -2.047925     -2.855857      4.249510
  H       0.407651     -3.075588      3.895536
47
Coordinates from ORCA-job orca_MEP E -1040.251350376449
  C       1.954363     -2.621017     -0.862017
  C       1.869657     -1.513568      0.205202
  C       1.835486     -2.080759      1.633118
  C       0.382437     -2.037425      1.984947
  C      -0.380129     -1.351124      1.030353
  C       0.567389     -0.704945      0.051748
  C       0.590448      0.456458     -0.702751
  C      -0.407155      1.564506     -0.945782
  C      -1.800253      1.623563     -1.048401
  C      -2.446891      2.811535     -1.406985
  C      -1.728611      3.984350     -1.635889
  C      -0.337026      3.955416     -1.554717
  C       0.303619      2.755624     -1.252797
  C       1.720993      2.446785     -1.366345
  C       2.780207      3.296610     -1.675921
  C       4.041243      2.751701     -1.919555
  C       4.201401      1.365518     -1.904802
  C       3.139243      0.515931     -1.571189
  C       1.886844      1.046759     -1.219395
  C      -1.814669     -1.414265      1.181467
  C      -2.744270     -1.132129      0.151661
  C      -4.106459     -1.121496      0.377508
  C      -4.625411     -1.461479      1.646374
  C      -3.764532     -1.893704      2.628792
  C      -2.360193     -1.917284      2.418849
  C      -1.508289     -2.502228      3.392795
  C      -0.162619     -2.611007      3.150396
  H       2.907547     -3.157818     -0.790390
  H       1.867007     -2.206599     -1.871344
  H       1.144165     -3.347145     -0.732856
  H       2.733119     -0.861478      0.115078
  H       2.428059     -1.461965      2.321150
  H       2.239286     -3.099065      1.695729
  H      -2.412701      0.756995     -0.896835
  H      -3.526760      2.805522     -1.527875
  H      -2.244487      4.900173     -1.909577
  H       0.245443      4.845371     -1.775559
  H       2.620550      4.369394     -1.741884
  H       4.881519      3.398244     -2.155594
  H       5.162675      0.929534     -2.162269
  H       3.312571     -0.548380     -1.641365
  H      -2.359873     -0.961965     -0.844394
  H      -4.785548     -0.859898     -0.428756
  H      -5.695957     -1.430452      1.827097
  H      -4.147477     -2.249654      3.582362
  H      -1.948378     -2.910974      4.299128
  H       0.492416     -3.122164      3.851492
47
Coordinates from ORCA-job orca_MEP E -1040.244344821803
  C       1.947437     -2.613645     -0.878935
  C       1.860115     -1.514183      0.196654
  C       1.839619     -2.097067      1.615741
  C       0.390347     -2.064538      1.977684
  C      -0.383855     -1.352512      1.051774
  C       0.550643     -0.712994      0.047623
  C       0.571177      0.422327     -0.748897
  C      -0.427324      1.517757     -1.049101
  C      -1.787776      1.544068     -1.372065
  C      -2.433705      2.744215     -1.688396
  C      -1.738373      3.952191     -1.706009
  C      -0.359471      3.944255     -1.494249
  C       0.282072      2.738316     -1.219387
  C       1.708021      2.443286     -1.294989
  C       2.766751      3.305333     -1.570750
  C       4.029509      2.772262     -1.834516
  C       4.196370      1.387618     -1.864586
  C       3.135556      0.523167     -1.564460
  C       1.878725      1.037799     -1.209616
  C      -1.814587     -1.381465      1.256722
  C      -2.762132     -0.980601      0.290864
  C      -4.118070     -0.959098      0.542030
  C      -4.618411     -1.406580      1.783538
  C      -3.742922     -1.923456      2.711210
  C      -2.342655     -1.947290      2.473779
  C      -1.477539     -2.583214      3.401758
  C      -0.136139     -2.673925      3.134293
  H       2.903768     -3.145569     -0.811973
  H       1.854820     -2.194033     -1.885520
  H       1.141917     -3.345290     -0.751269
  H       2.719139     -0.856141      0.105438
  H       2.430806     -1.482455      2.308761
  H       2.251561     -3.112603      1.664168
  H      -2.367153      0.644471     -1.464144
  H      -3.488140      2.719052     -1.949920
  H      -2.253556      4.877929     -1.945167
  H       0.217517      4.858077     -1.604279
  H       2.604101      4.379209     -1.608482
  H       4.865992      3.429194     -2.055792
  H       5.159246      0.963983     -2.137222
  H       3.309772     -0.538669     -1.669713
  H      -2.389174     -0.739321     -0.686806
  H      -4.804413     -0.610373     -0.224655
  H      -5.685839     -1.385065      1.984317
  H      -4.112918     -2.346676      3.642003
  H      -1.902880     -3.032244      4.295765
  H       0.532051     -3.205502      3.806776
47
Coordinates from ORCA-job orca_MEP E -1040.241752912980
  C       1.946449     -2.603527     -0.884021
  C       1.858819     -1.513904      0.202116
  C       1.837478     -2.113766      1.611097
  C       0.388053     -2.085201      1.970744
  C      -0.385784     -1.334863      1.073637
  C       0.549946     -0.711514      0.055360
  C       0.576497      0.394644     -0.780891
  C      -0.422765      1.466120     -1.133196
  C      -1.742958      1.449238     -1.593982
  C      -2.416768      2.644034     -1.878584
  C      -1.769853      3.874967     -1.766210
  C      -0.402876      3.904830     -1.480827
  C       0.262927      2.708969     -1.222690
  C       1.697822      2.435414     -1.268248
  C       2.750046      3.310529     -1.527803
  C       4.019715      2.792002     -1.794092
  C       4.203370      1.409995     -1.836753
  C       3.150278      0.531090     -1.551311
  C       1.886172      1.029409     -1.205798
  C      -1.814437     -1.322031      1.318839
  C      -2.765519     -0.744864      0.452688
  C      -4.120816     -0.761186      0.705113
  C      -4.621730     -1.382280      1.867280
  C      -3.739273     -1.988575      2.731601
  C      -2.340090     -1.989974      2.485224
  C      -1.473835     -2.677505      3.373542
  C      -0.131283     -2.736125      3.107894
  H       2.902656     -3.136308     -0.820555
  H       1.854097     -2.175394     -1.886845
  H       1.140807     -3.336123     -0.762458
  H       2.717996     -0.854805      0.115652
  H       2.423858     -1.505524      2.314206
  H       2.252775     -3.128293      1.648802
  H      -2.244707      0.521522     -1.830179
  H      -3.447504      2.602568     -2.218925
  H      -2.305501      4.796319     -1.976496
  H       0.146557      4.841644     -1.521556
  H       2.577721      4.383188     -1.559265
  H       4.848903      3.459750     -2.010051
  H       5.171428      0.999964     -2.111440
  H       3.332747     -0.528689     -1.665604
  H      -2.403576     -0.283488     -0.439840
  H      -4.803278     -0.296347     -0.001527
  H      -5.689126     -1.393796      2.067851
  H      -4.102754     -2.495592      3.622228
  H      -1.896252     -3.172869      4.244267
  H       0.543566     -3.283654      3.761005
47
Coordinates from ORCA-job orca_MEP E -1040.245669100326
  C       1.989300     -2.535741     -0.878750
  C       1.889736     -1.500770      0.260720
  C       1.828525     -2.185269      1.625933
  C       0.368202     -2.177353      1.940015
  C      -0.366913     -1.307312      1.119019
  C       0.589167     -0.685204      0.123552
  C       0.619086      0.388849     -0.751608
  C      -0.403099      1.392234     -1.187901
  C      -1.719836      1.273646     -1.644953
  C      -2.442023      2.420565     -2.004999
  C      -1.848239      3.684336     -1.964160
  C      -0.486424      3.799702     -1.672558
  C       0.232104      2.653088     -1.343519
  C       1.677706      2.435819     -1.331091
  C       2.704956      3.336126     -1.604061
  C       4.001553      2.853905     -1.800589
  C       4.238176      1.480105     -1.758505
  C       3.211821      0.577548     -1.451236
  C       1.918014      1.043101     -1.176203
  C      -1.788120     -1.205979      1.407556
  C      -2.680914     -0.296137      0.798752
  C      -4.042227     -0.317502      1.026125
  C      -4.605164     -1.234307      1.936506
  C      -3.767026     -2.075428      2.631018
  C      -2.364876     -2.080327      2.402783
  C      -1.542530     -2.931853      3.184040
  C      -0.189663     -2.955477      2.972993
  H       2.940831     -3.078314     -0.827988
  H       1.910721     -2.061314     -1.861200
  H       1.177565     -3.267702     -0.799956
  H       2.753814     -0.841517      0.227528
  H       2.381977     -1.615165      2.385805
  H       2.252418     -3.196339      1.617370
  H      -2.185580      0.301223     -1.750374
  H      -3.471825      2.320537     -2.335430
  H      -2.425314      4.567849     -2.222364
  H       0.014819      4.761129     -1.750554
  H       2.494189      4.398185     -1.698813
  H       4.811745      3.540347     -2.028896
  H       5.228105      1.093275     -1.984011
  H       3.439804     -0.477814     -1.500007
  H      -2.278909      0.458350      0.152809
  H      -4.680518      0.387777      0.500875
  H      -5.677549     -1.255205      2.106748
  H      -4.165478     -2.755544      3.380223
  H      -2.003254     -3.546707      3.953320
  H       0.461146     -3.583413      3.576033
47
Coordinates from ORCA-job orca_MEP E -1040.254602805677
  C       2.095538     -2.438633     -0.889686
  C       1.947634     -1.512788      0.337305
  C       1.802390     -2.339046      1.617060
  C       0.327625     -2.323319      1.863796
  C      -0.329423     -1.312229      1.143802
  C       0.659420     -0.678422      0.208653
  C       0.677800      0.387835     -0.673258
  C      -0.392413      1.296155     -1.171714
  C      -1.723430      1.067654     -1.536925
  C      -2.506739      2.132415     -2.001789
  C      -1.968303      3.416065     -2.135812
  C      -0.608170      3.630107     -1.898023
  C       0.175555      2.562289     -1.467588
  C       1.629439      2.431060     -1.415322
  C       2.610148      3.366337     -1.738275
  C       3.941600      2.955589     -1.834651
  C       4.262459      1.612636     -1.636222
  C       3.283464      0.678529     -1.276898
  C       1.948120      1.077602     -1.111912
  C      -1.729164     -1.097558      1.466219
  C      -2.489758      0.041228      1.106317
  C      -3.848385      0.124086      1.344840
  C      -4.529336     -0.913826      2.014003
  C      -3.804818     -1.977126      2.501537
  C      -2.406738     -2.082172      2.276524
  C      -1.679062     -3.125859      2.906010
  C      -0.319742     -3.206998      2.747682
  H       3.040106     -2.993698     -0.847823
  H       2.059594     -1.878693     -1.827752
  H       1.276155     -3.166259     -0.906460
  H       2.816072     -0.859941      0.415166
  H       2.323070     -1.867369      2.462958
  H       2.210350     -3.351563      1.519905
  H      -2.155412      0.076274     -1.466186
  H      -3.544795      1.954649     -2.268168
  H      -2.594983      4.237245     -2.472831
  H      -0.162075      4.603668     -2.083768
  H       2.338894      4.398808     -1.941721
  H       4.717245      3.668209     -2.099962
  H       5.284951      1.272773     -1.777507
  H       3.587606     -0.354896     -1.199238
  H      -1.990300      0.877404      0.648689
  H      -4.392373      1.005074      1.016054
  H      -5.601398     -0.854441      2.177760
  H      -4.289110     -2.754008      3.088368
  H      -2.212617     -3.825636      3.544360
  H       0.263307     -3.959212      3.272485
47
Coordinates from ORCA-job orca_MEP E -1040.265880582780
  C       2.296433     -2.274458     -0.954515
  C       2.004427     -1.584772      0.395420
  C       1.705623     -2.639616      1.474574
  C       0.225895     -2.531478      1.680734
  C      -0.299184     -1.355400      1.125040
  C       0.740752     -0.709439      0.286663
  C       0.741515      0.383911     -0.558752
  C      -0.388159      1.153177     -1.137417
  C      -1.716388      0.798448     -1.400608
  C      -2.575634      1.731960     -1.989976
  C      -2.119418      3.005989     -2.346001
  C      -0.772116      3.337389     -2.183975
  C       0.088277      2.399900     -1.615609
  C       1.543884      2.403352     -1.506702
  C       2.456143      3.379065     -1.904227
  C       3.823304      3.108639     -1.826687
  C       4.255450      1.865918     -1.359287
  C       3.343205      0.893964     -0.935288
  C       1.963301      1.147204     -0.983965
  C      -1.642077     -0.982444      1.519206
  C      -2.194322      0.317274      1.394496
  C      -3.510480      0.579910      1.723514
  C      -4.347835     -0.440361      2.223198
  C      -3.816363     -1.686804      2.466458
  C      -2.458674     -1.976776      2.168357
  C      -1.894412     -3.215952      2.575136
  C      -0.554193     -3.459347      2.396070
  H       3.223082     -2.857418     -0.899665
  H       2.383916     -1.557152     -1.773093
  H       1.479233     -2.962477     -1.199289
  H       2.862280     -0.980145      0.697759
  H       2.218626     -2.413673      2.420289
  H       2.028531     -3.644057      1.177978
  H      -2.087063     -0.188596     -1.152091
  H      -3.611738      1.461233     -2.172351
  H      -2.806265      3.726552     -2.781359
  H      -0.396802      4.300579     -2.519801
  H       2.106163      4.334019     -2.287318
  H       4.547551      3.851694     -2.148094
  H       5.317376      1.636459     -1.335263
  H       3.741343     -0.058901     -0.619738
  H      -1.567558      1.122915      1.043205
  H      -3.901655      1.584712      1.593252
  H      -5.389998     -0.232969      2.448214
  H      -4.422669     -2.468962      2.916816
  H      -2.529599     -3.938308      3.081811
  H      -0.093705     -4.364757      2.782882
47
Coordinates from ORCA-job orca_MEP E -1040.275748553135
  C       2.764427     -1.916220     -0.982443
  C       1.932637     -1.777326      0.301450
  C       1.283745     -3.144852      0.673708
  C      -0.062992     -2.786010      1.230637
  C      -0.368144     -1.445633      0.983299
  C       0.725126     -0.819605      0.226308
  C       0.703189      0.345814     -0.508573
  C      -0.441148      0.939418     -1.242134
  C      -1.740675      0.469056     -1.466541
  C      -2.589563      1.176326     -2.321010
  C      -2.153337      2.337615     -2.971060
  C      -0.847100      2.796231     -2.789786
  C       0.004763      2.095236     -1.936041
  C       1.415639      2.308496     -1.616368
  C       2.275561      3.352942     -1.955308
  C       3.579853      3.348938     -1.456141
  C       4.006087      2.321390     -0.605529
  C       3.147323      1.274927     -0.260328
  C       1.851111      1.238367     -0.790657
  C      -1.524992     -0.861290      1.616850
  C      -1.796899      0.531308      1.661187
  C      -2.914378      1.022248      2.304960
  C      -3.827282      0.147921      2.936399
  C      -3.574731     -1.205258      2.949939
  C      -2.417700     -1.741099      2.322757
  C      -2.111918     -3.125701      2.437546
  C      -0.935838     -3.636343      1.934852
  H       3.514292     -2.705007     -0.851883
  H       3.285732     -1.001354     -1.261821
  H       2.118715     -2.201375     -1.819885
  H       2.588832     -1.478811      1.133205
  H       1.886876     -3.723646      1.382812
  H       1.183162     -3.763398     -0.229363
  H      -2.095052     -0.436789     -0.988746
  H      -3.601400      0.815639     -2.484474
  H      -2.828700      2.873505     -3.632326
  H      -0.495873      3.677460     -3.320473
  H       1.932257      4.169147     -2.585739
  H       4.260857      4.155638     -1.712767
  H       5.014500      2.340047     -0.201271
  H       3.493570      0.509037      0.425862
  H      -1.105665      1.220003      1.194700
  H      -3.089462      2.094156      2.330704
  H      -4.710742      0.546315      3.427209
  H      -4.248319     -1.886941      3.463682
  H      -2.806578     -3.767726      2.973643
  H      -0.679766     -4.682796      2.078959
